http://web.archive.org/web/20141002111855id_/http://www.dailymail.co.uk/sport/football/article-2657400/Andriy-Yarmolenko-eyed-Chelsea-12m-Liverpools-Dynamo-Kiev-winger-falters.html

@entity0 are weighing up a £ 12million move for @entity3 winger @entity2			0
although @entity5 born , the 24 - year - old is one of the stars of @entity9 's national side along with @entity12 target @entity10 of @entity13			1
@entity2 is 6ft 2ins , quick , powerful and has a decent goals record with 54 in 146 games for @entity16 and 15 in 39 for the national side			1
@entity18 : @entity2 ( left ) could be winging his way to the @entity20 on the attack : @entity2 ( right ) takes on @entity23 's @entity22 in a @entity25 qualifier in @entity16 @entity16 wanted £ 20m for the left - footed @entity2 last summer but are willing to sell for less now			2
he has been reluctant to leave @entity16 and but a move to @entity28 appeals and @entity30 's connections could smooth the way			0
@entity12 have shown an interest in the past as have @entity34 but had concerns about the player 's consistency			2
@entity12 , meanwhile have spoken to @entity38 about the cost of @entity40 as @entity41 continue to demand £ 25m for @entity42 .			0

the @entity5 - born 24 - year - old is a star of @entity9 's national side and could be *heading* to @entity46
@entity12 and @entity34 have been interested in @entity2 in the past , but concerns linger about his consistency
he has *scored* an *impressive* 54 goals in 146 games for @entity16

@entity22:Ashley Cole
@entity23:England
@entity20:Premier League
@entity25:World Cup
@entity28:London
@entity12:Liverpool
@entity3:Dinamo Kiev
@entity2:Yarmolenko
@entity0:Chelsea
@entity5:Russian
@entity9:Ukraine
@entity30:Roman Abramovich
@entity13:Dnipro
@entity34:Arsenal
@entity10:Yevhen Konoplyanka
@entity38:Bayern Munich
@entity18:Target
@entity46:Stamford Bridge
@entity40:Xherdan Shaqiri
@entity41:Southampton
@entity42:Adam Lallana
@entity16:Kiev